test/data/opendss/loadparser_warn_model6.dss
Clear
New Circuit.3Bus_example
!  define a really stiff source
~ basekv=0.4   pu=1.0  MVAsc1=1e6  MVAsc3=1e6 basemva=1

!Define Linecodes


New linecode.556MCM nphases=3 basefreq=50  ! ohms per 5 mile
~ rmatrix = ( 0.1000 | 0.0400    0.1000 |  0.0400    0.0400    0.1000)
~ xmatrix = ( 0.0583 |  0.0233    0.0583 | 0.0233    0.0233    0.0583)
~ cmatrix = (0.0  | -0  0.0 | -0 -0 0.0  ) ! small capacitance

!Define lines

New Line.OHLine  bus1=sourcebus.1.2.3.0  loadbus.1.2.3.0  linecode = 556MCM   length=0.000000001  ! 5 mile line

!Loads - single phase

! Wrning when load model is 6
New Load.d1ph phases=3 loadbus kv=0.23 kW=400 kvar=300 model=6 conn=delta vminpu=0.7 vmaxpu=1.3

Set voltagebases=[0.4]
Set tolerance=0.000001
set defaultbasefreq=50
Calcvoltagebases

Solve
